Version 4
SHEET 1 4320 680
WIRE 608 -176 -128 -176
WIRE 1088 -176 912 -176
WIRE 1216 -176 1168 -176
WIRE 912 -112 912 -176
WIRE 608 -64 608 -176
WIRE 608 -64 512 -64
WIRE 512 0 512 -64
WIRE 912 0 912 -32
WIRE 1088 0 912 0
WIRE 1312 0 1152 0
WIRE 448 48 304 48
WIRE 912 48 912 0
WIRE 112 96 -16 96
WIRE 304 96 304 48
WIRE 304 96 192 96
WIRE -128 112 -128 -176
WIRE 1312 112 1312 0
WIRE 1472 112 1312 112
WIRE -16 128 -16 96
WIRE 512 128 512 96
WIRE 640 128 512 128
WIRE 864 128 720 128
WIRE 512 160 512 128
WIRE 1312 160 1312 112
WIRE 1472 160 1472 112
WIRE 304 208 304 96
WIRE 448 208 304 208
WIRE -128 288 -128 192
WIRE -16 288 -16 208
WIRE -16 288 -128 288
WIRE 512 288 512 256
WIRE 512 288 -16 288
WIRE 912 288 912 144
WIRE 912 288 512 288
WIRE 1168 288 912 288
WIRE 1312 288 1312 224
WIRE 1312 288 1168 288
WIRE 1472 288 1472 240
WIRE 1472 288 1312 288
WIRE 1168 304 1168 288
WIRE -128 320 -128 288
FLAG 1216 -176 0
FLAG -128 320 0
FLAG 1168 304 0
FLAG 1472 112 V_bat
SYMBOL ind 896 -128 R0
SYMATTR InstName L1
SYMATTR Value 100µ
SYMBOL voltage 1072 -176 R270
WINDOW 0 32 56 VTop 2
WINDOW 3 -32 56 VBottom 2
WINDOW 123 0 0 Left 0
WINDOW 39 0 0 Left 0
SYMATTR InstName V2
SYMATTR Value 19
SYMBOL voltage -128 96 R0
WINDOW 0 32 56 Invisible 2
WINDOW 3 -32 56 VBottom 2
WINDOW 123 0 0 Left 0
WINDOW 39 0 0 Left 0
SYMATTR InstName V3
SYMATTR Value 12v
SYMBOL voltage -16 112 R0
WINDOW 0 24 16 Invisible 2
WINDOW 3 24 96 Invisible 2
WINDOW 123 0 0 Left 0
WINDOW 39 0 0 Left 0
SYMATTR InstName V4
SYMATTR Value PULSE(0 10v 1n 1n 1n 13u 20u)
SYMBOL cap 1296 160 R0
SYMATTR InstName C2
SYMATTR Value 1000µ
SYMBOL schottky 1088 16 R270
WINDOW 0 32 32 VTop 2
WINDOW 3 0 32 Invisible 2
SYMATTR InstName D2
SYMATTR Value RBR5LAM60A
SYMATTR Description Diode
SYMATTR Type diode
SYMBOL nmos 864 48 R0
SYMATTR InstName M1
SYMATTR Value IRFZ44N
SYMBOL res 736 112 R90
WINDOW 0 0 56 VBottom 2
WINDOW 3 32 56 VTop 2
SYMATTR InstName R2
SYMATTR Value 1
SYMBOL npn 448 0 R0
SYMATTR InstName Q1
SYMATTR Value 2N2222
SYMBOL pnp 448 256 M180
SYMATTR InstName Q2
SYMATTR Value 2N2907
SYMBOL res 208 80 R90
WINDOW 0 0 56 VBottom 2
WINDOW 3 32 56 VTop 2
SYMATTR InstName R1
SYMATTR Value 470
SYMBOL res 1456 144 R0
SYMATTR InstName R3
SYMATTR Value 10
TEXT 368 -312 Left 2 !.inc FAN7392_REV1p2_ltspice.txt
TEXT -192 352 Left 2 !.tran 10m
