Version 4
SHEET 1 6712 680
WIRE 1440 -432 1440 -480
WIRE 1440 -320 1440 -352
WIRE 1440 -320 608 -320
WIRE 1440 -304 1440 -320
WIRE 1568 -224 1440 -224
WIRE 1440 -208 1440 -224
WIRE 1072 -192 1072 -224
WIRE 656 -176 480 -176
WIRE 784 -176 720 -176
WIRE 880 -176 784 -176
WIRE 1040 -176 880 -176
WIRE 1280 -160 1104 -160
WIRE 1376 -160 1360 -160
WIRE 1040 -144 992 -144
WIRE 1568 -144 1568 -224
WIRE 992 -96 992 -144
WIRE 880 -80 880 -96
WIRE 608 -32 608 -320
WIRE 1440 -16 1440 -112
WIRE 128 48 -128 48
WIRE 384 48 288 48
WIRE 480 48 480 -176
WIRE 480 48 464 48
WIRE 560 48 480 48
WIRE 1568 48 1568 -64
WIRE 128 96 16 96
WIRE 352 96 288 96
WIRE 464 96 352 96
WIRE -128 112 -128 48
WIRE 608 112 608 64
WIRE 1008 112 608 112
WIRE 1216 112 1088 112
WIRE 1376 112 1216 112
WIRE 1520 112 1376 112
WIRE 1632 112 1616 112
WIRE 1712 112 1632 112
WIRE 16 128 16 96
WIRE 528 144 528 96
WIRE 528 144 288 144
WIRE 608 144 608 112
WIRE 608 144 528 144
WIRE 1376 160 1376 112
WIRE 1712 160 1712 112
WIRE 608 176 608 144
WIRE 1216 176 1216 112
WIRE 1632 176 1632 112
WIRE 352 192 352 160
WIRE 352 192 288 192
WIRE 448 192 352 192
WIRE -128 240 -128 192
WIRE 16 240 16 208
WIRE 16 240 -128 240
WIRE 128 240 16 240
WIRE 320 240 288 240
WIRE 320 304 320 240
WIRE 416 304 320 304
WIRE 608 304 608 240
WIRE 608 304 416 304
WIRE 1216 304 1216 240
WIRE 1216 304 608 304
WIRE 1376 304 1376 240
WIRE 1376 304 1216 304
WIRE 1632 304 1632 240
WIRE 1632 304 1376 304
WIRE 1712 304 1712 240
WIRE 1712 304 1632 304
WIRE -128 320 -128 240
WIRE 416 320 416 304
FLAG 416 320 0
FLAG 1440 -480 0
FLAG -128 320 0
FLAG 1440 -16 0
FLAG 448 192 V_bat
FLAG 1712 112 V_bat
FLAG 992 -96 V_bat
FLAG 784 -112 0
FLAG 880 -80 0
FLAG 1072 -128 V_bat
FLAG 1072 -224 0
SYMBOL Gate\ drivers\\FAN7392 208 160 R0
SYMATTR InstName U1
SYMBOL nmos 560 -32 R0
WINDOW 0 56 32 Invisible 2
WINDOW 3 56 72 Left 0
SYMATTR InstName M1
SYMATTR Value IRFZ44N
SYMBOL res 480 32 R90
WINDOW 0 0 56 Invisible 2
WINDOW 3 -33 52 VTop 0
SYMATTR InstName R1
SYMATTR Value 3.7
SYMBOL ind 992 128 R270
WINDOW 0 32 56 Invisible 2
WINDOW 3 5 56 VBottom 0
SYMATTR InstName L1
SYMATTR Value 100µ
SYMBOL cap 528 80 R90
WINDOW 0 0 32 Invisible 2
WINDOW 3 32 32 Invisible 2
SYMATTR InstName C1
SYMATTR Value 10µF
SYMBOL voltage 1440 -336 R180
WINDOW 0 32 56 Invisible 2
WINDOW 3 -32 56 VBottom 0
WINDOW 123 0 0 Left 0
WINDOW 39 0 0 Left 0
SYMATTR InstName V2
SYMATTR Value 19
SYMBOL voltage -128 96 R0
WINDOW 0 32 56 Invisible 2
WINDOW 3 -32 56 VBottom 2
WINDOW 123 0 0 Left 0
WINDOW 39 0 0 Left 0
SYMATTR InstName V3
SYMATTR Value 5V
SYMBOL voltage 16 112 R0
WINDOW 0 24 16 Invisible 2
WINDOW 3 24 96 Invisible 2
WINDOW 123 0 0 Left 0
WINDOW 39 0 0 Left 0
SYMATTR InstName V4
SYMATTR Value PULSE(0 5v 1n 1n 1n 13.2u 20u)
SYMBOL cap 1200 176 R0
WINDOW 0 24 8 Invisible 2
WINDOW 3 24 56 Left 0
SYMATTR InstName C2
SYMATTR Value 100µF
SYMBOL diode 368 160 R180
WINDOW 0 24 64 Invisible 2
WINDOW 3 24 0 Invisible 2
SYMATTR InstName D1
SYMATTR Value 1N4148
SYMBOL schottky 624 240 R180
WINDOW 0 24 64 Invisible 2
WINDOW 3 24 0 Invisible 2
SYMATTR InstName D2
SYMATTR Value RBR3LAM30A
SYMATTR Description Diode
SYMATTR Type diode
SYMBOL Misc\\battery 1712 144 R0
WINDOW 0 24 16 Invisible 2
WINDOW 3 24 104 Left 0
WINDOW 123 0 0 Left 0
WINDOW 39 24 132 Left 0
SYMATTR InstName V1
SYMATTR Value 12
SYMATTR SpiceLine Rser=0.1
SYMBOL res 1360 144 R0
WINDOW 0 36 40 Invisible 2
WINDOW 3 36 76 Left 0
SYMATTR InstName R2
SYMATTR Value 10k
SYMBOL npn 1376 -208 R0
WINDOW 0 56 32 Invisible 2
WINDOW 3 56 68 Left 0
SYMATTR InstName Q1
SYMATTR Value BC547B
SYMBOL res 1424 -320 R0
WINDOW 0 36 40 Invisible 2
WINDOW 3 36 76 Left 0
SYMATTR InstName R3
SYMATTR Value 100
SYMBOL res 1376 -176 R90
WINDOW 0 0 56 Invisible 2
WINDOW 3 32 56 VTop 0
SYMATTR InstName R4
SYMATTR Value 1k
SYMBOL res 1552 -160 R0
WINDOW 0 36 40 Invisible 2
WINDOW 3 36 76 Left 0
SYMATTR InstName R5
SYMATTR Value 470
SYMBOL cap 1616 176 R0
WINDOW 0 24 8 Invisible 2
WINDOW 3 24 56 Left 0
SYMATTR InstName C3
SYMATTR Value 100µF
SYMBOL OpAmps\\OP07 1072 -96 M180
WINDOW 0 16 32 Invisible 2
SYMATTR InstName U3
SYMBOL pnp 1520 48 M90
SYMATTR InstName Q2
SYMATTR Value 2SAR572D3
SYMBOL diode 656 -160 R270
WINDOW 0 32 32 Invisible 2
WINDOW 3 0 32 VBottom 2
SYMATTR InstName D3
SYMATTR Value 1N4148
SYMBOL cap 768 -176 R0
WINDOW 0 24 8 Invisible 2
SYMATTR InstName C4
SYMATTR Value 100n
SYMBOL res 864 -192 R0
SYMATTR InstName R6
SYMATTR Value 10k
TEXT -8 -384 Left 2 !.inc FAN7392_REV1p2_ltspice.txt
TEXT -192 352 Left 2 !.tran 10m
