Version 4
SHEET 1 4320 680
WIRE 1088 -176 912 -176
WIRE 1216 -176 1168 -176
WIRE 912 -32 912 -176
WIRE 128 48 -128 48
WIRE 592 48 592 16
WIRE 736 48 592 48
WIRE 864 48 816 48
WIRE -128 112 -128 48
WIRE 912 112 912 64
WIRE 912 112 752 112
WIRE 1072 112 912 112
WIRE 1312 112 1152 112
WIRE 1472 112 1312 112
WIRE 64 128 -32 128
WIRE -32 160 -32 128
WIRE 1312 160 1312 112
WIRE 1472 160 1472 112
WIRE 912 176 912 112
WIRE 64 192 64 128
WIRE 128 192 64 192
WIRE 480 192 288 192
WIRE 480 208 480 192
WIRE -128 240 -128 192
WIRE -48 240 -128 240
WIRE -32 240 -48 240
WIRE 128 240 -32 240
WIRE 416 240 288 240
WIRE 352 288 288 288
WIRE 912 288 912 240
WIRE 1168 288 912 288
WIRE 1312 288 1312 224
WIRE 1312 288 1168 288
WIRE 1472 288 1472 240
WIRE 1472 288 1312 288
WIRE -48 304 -48 240
WIRE 352 304 352 288
WIRE 416 304 416 240
WIRE 480 304 480 288
WIRE 480 304 416 304
WIRE 752 304 752 112
WIRE 752 304 480 304
WIRE 1168 304 1168 288
FLAG 1216 -176 0
FLAG 1168 304 0
FLAG 1472 112 V_bat
FLAG 352 304 V_g
FLAG 592 16 V_g
FLAG -48 304 0
SYMBOL Gate\ drivers\\FAN7392 208 160 R0
SYMATTR InstName U1
SYMBOL ind 1056 128 R270
WINDOW 0 32 56 VTop 2
WINDOW 3 5 56 VBottom 2
SYMATTR InstName L1
SYMATTR Value 100µ
SYMBOL voltage 1072 -176 R270
WINDOW 0 32 56 VTop 2
WINDOW 3 -32 56 VBottom 2
WINDOW 123 0 0 Left 0
WINDOW 39 0 0 Left 0
SYMATTR InstName V2
SYMATTR Value 19
SYMBOL voltage -128 96 R0
WINDOW 0 32 56 Invisible 2
WINDOW 3 -32 56 VBottom 2
WINDOW 123 0 0 Left 0
WINDOW 39 0 0 Left 0
SYMATTR InstName V3
SYMATTR Value 5V
SYMBOL voltage -32 144 R0
WINDOW 0 24 16 Invisible 2
WINDOW 3 24 96 Invisible 2
WINDOW 123 0 0 Left 0
WINDOW 39 0 0 Left 0
SYMATTR InstName V4
SYMATTR Value PULSE(0 5v 1n 1n 1n 13u 20u)
SYMBOL cap 1296 160 R0
SYMATTR InstName C2
SYMATTR Value 470µ
SYMBOL schottky 928 240 R180
WINDOW 0 24 64 Invisible 2
WINDOW 3 24 0 Invisible 2
SYMATTR InstName D2
SYMATTR Value RBR5LAM60A
SYMATTR Description Diode
SYMATTR Type diode
SYMBOL Misc\\battery 1472 144 R0
WINDOW 123 0 0 Left 0
WINDOW 39 24 132 Left 2
SYMATTR SpiceLine Rser=0.2
SYMATTR InstName V1
SYMATTR Value 12
SYMBOL nmos 864 -32 R0
SYMATTR InstName M1
SYMATTR Value IRFZ44N
SYMBOL res 832 32 R90
WINDOW 0 0 56 Invisible 2
WINDOW 3 32 56 VTop 2
SYMATTR InstName R2
SYMATTR Value 4
SYMBOL voltage 480 192 R0
WINDOW 0 24 16 Invisible 2
WINDOW 123 0 0 Left 0
WINDOW 39 0 0 Left 0
SYMATTR InstName V5
SYMATTR Value 12V
TEXT 280 -288 Left 2 !.inc FAN7392_REV1p2_ltspice.txt
TEXT -192 400 Left 2 !.tran 10m
