Version 4
SHEET 1 2256 680
WIRE 928 -224 608 -224
WIRE 1088 -224 928 -224
WIRE 1440 -224 1344 -224
WIRE 1664 -224 1440 -224
WIRE 608 -176 608 -224
WIRE 640 -176 608 -176
WIRE 768 -176 720 -176
WIRE 928 -160 928 -224
WIRE 1440 -160 1440 -224
WIRE 1664 -160 1664 -224
WIRE 928 -48 928 -96
WIRE 1216 -48 1216 -128
WIRE 1440 -48 1440 -80
WIRE 1440 -48 1216 -48
WIRE 1664 -48 1664 -96
WIRE 608 -32 608 -176
WIRE 1440 -32 1440 -48
WIRE 128 48 -128 48
WIRE 384 48 288 48
WIRE 560 48 464 48
WIRE 128 96 16 96
WIRE 352 96 288 96
WIRE 464 96 352 96
WIRE 1440 96 1440 48
WIRE -128 112 -128 48
WIRE 608 112 608 64
WIRE 704 112 608 112
WIRE 880 112 784 112
WIRE 1120 112 880 112
WIRE 16 128 16 96
WIRE 528 144 528 96
WIRE 528 144 288 144
WIRE 608 144 608 112
WIRE 608 144 528 144
WIRE 608 176 608 144
WIRE 1120 176 1120 112
WIRE 336 192 288 192
WIRE 352 192 352 160
WIRE 352 192 336 192
WIRE 880 192 880 112
WIRE 432 208 384 208
WIRE 336 224 336 192
WIRE 384 224 384 208
WIRE 384 224 336 224
WIRE -128 240 -128 192
WIRE 16 240 16 208
WIRE 16 240 -128 240
WIRE 128 240 16 240
WIRE 320 240 288 240
WIRE 384 256 384 224
WIRE 432 256 384 256
WIRE 1120 256 1120 240
WIRE 384 272 384 256
WIRE -128 320 -128 240
WIRE 320 384 320 240
WIRE 384 384 384 336
WIRE 384 384 320 384
WIRE 416 384 384 384
WIRE 608 384 608 240
WIRE 608 384 416 384
WIRE 880 384 880 256
WIRE 880 384 608 384
WIRE 1120 384 1120 256
WIRE 1120 384 880 384
WIRE 416 400 416 384
FLAG 416 400 0
FLAG 768 -176 0
FLAG -128 320 0
FLAG 1120 112 V_bat
FLAG 496 256 V_bat
FLAG 496 208 V_reg
FLAG 1664 -224 V_reg
FLAG 928 -48 0
FLAG 1664 -48 0
FLAG 1440 96 0
SYMBOL Gate\ drivers\\FAN7392 208 160 R0
SYMATTR InstName U1
SYMBOL nmos 560 -32 R0
WINDOW 0 56 32 Invisible 2
SYMATTR InstName M1
SYMATTR Value IRFZ44N
SYMBOL res 480 32 R90
WINDOW 0 0 56 Invisible 2
WINDOW 3 -33 52 VTop 2
SYMATTR InstName R1
SYMATTR Value 3.7
SYMBOL ind 688 128 R270
WINDOW 0 32 56 VTop 2
WINDOW 3 5 56 VBottom 2
SYMATTR InstName L1
SYMATTR Value 100µ
SYMBOL cap 528 80 R90
WINDOW 0 0 32 Invisible 2
WINDOW 3 32 32 Invisible 2
SYMATTR InstName C1
SYMATTR Value 1µF
SYMBOL voltage 624 -176 R270
WINDOW 0 -90 62 VTop 2
WINDOW 3 -32 56 VBottom 2
WINDOW 123 0 0 Left 0
WINDOW 39 0 0 Left 0
SYMATTR InstName V_PV
SYMATTR Value 24
SYMBOL voltage -128 96 R0
WINDOW 0 32 56 Invisible 2
WINDOW 3 -32 56 VBottom 2
WINDOW 123 0 0 Left 0
WINDOW 39 0 0 Left 0
SYMATTR InstName V3
SYMATTR Value 5V
SYMBOL voltage 16 112 R0
WINDOW 0 24 16 Invisible 2
WINDOW 3 24 96 Invisible 2
WINDOW 123 0 0 Left 0
WINDOW 39 0 0 Left 0
SYMATTR InstName V4
SYMATTR Value PULSE(0 5v 1n 1n 1n 11.5u 20u)
SYMBOL cap 864 192 R0
SYMATTR InstName C2
SYMATTR Value 1000µ
SYMBOL schottky 368 160 R180
WINDOW 0 24 64 Invisible 2
WINDOW 3 24 0 Invisible 2
SYMATTR InstName D1
SYMATTR Value BAT54
SYMATTR Description Diode
SYMATTR Type diode
SYMBOL schottky 624 240 R180
WINDOW 0 24 64 Invisible 2
WINDOW 3 24 0 Invisible 2
SYMATTR InstName D2
SYMATTR Value RBR3MM30A
SYMATTR Description Diode
SYMATTR Type diode
SYMBOL Misc\\battery 1120 160 R0
WINDOW 123 0 0 Left 0
WINDOW 39 24 132 Left 2
SYMATTR SpiceLine Rser=0.1
SYMATTR InstName V1
SYMATTR Value 13.5V
SYMBOL schottky 496 192 R90
WINDOW 0 0 32 Invisible 2
WINDOW 3 32 32 Invisible 2
SYMATTR InstName D3
SYMATTR Value MBRS130L
SYMATTR Description Diode
SYMATTR Type diode
SYMBOL schottky 496 240 R90
WINDOW 0 0 32 Invisible 2
WINDOW 3 32 32 Invisible 2
SYMATTR InstName D4
SYMATTR Value 1N5819
SYMATTR Description Diode
SYMATTR Type diode
SYMBOL cap 912 -160 R0
SYMATTR InstName C3
SYMATTR Value 10µF
SYMBOL cap 1648 -160 R0
SYMATTR InstName C4
SYMATTR Value 10µF
SYMBOL res 1424 -176 R0
SYMATTR InstName R2
SYMATTR Value 30
SYMBOL res 1424 -48 R0
SYMATTR InstName R3
SYMATTR Value 400
SYMBOL cap 368 272 R0
SYMATTR InstName C5
SYMATTR Value 10µF
SYMBOL PowerProducts\\LT1086H 1216 -224 R0
SYMATTR InstName U2
TEXT 1912 -680 Left 2 !.tran 100m
TEXT 1848 -736 Left 2 !.inc FAN7392_REV1p2_ltspice.txt
TEXT 32 208 Left 2 ;V_Gate
