Version 4
SHEET 1 4320 680
WIRE 160 -304 -176 -304
WIRE 400 -304 160 -304
WIRE 528 -304 400 -304
WIRE 880 -304 528 -304
WIRE 400 -256 400 -304
WIRE 160 -240 160 -304
WIRE -176 -224 -176 -304
WIRE 528 -192 528 -304
WIRE 400 -144 400 -192
WIRE 400 -144 304 -144
WIRE 464 -144 400 -144
WIRE 160 -112 160 -160
WIRE 304 -112 304 -144
WIRE 304 -112 160 -112
WIRE -176 -96 -176 -144
WIRE 160 -96 160 -112
WIRE 880 -96 880 -304
WIRE 832 -80 768 -80
WIRE 528 -48 528 -96
WIRE 768 -48 768 -80
WIRE 768 -48 528 -48
WIRE 528 0 528 -48
WIRE 160 32 160 -16
WIRE 880 32 880 0
WIRE 1024 32 880 32
WIRE 1296 32 1104 32
WIRE 1456 32 1296 32
WIRE 304 48 304 -112
WIRE 464 48 304 48
WIRE -48 80 -112 80
WIRE 96 80 32 80
WIRE 1296 112 1296 32
WIRE 1456 112 1456 32
WIRE -112 128 -112 80
WIRE 880 128 880 32
WIRE -112 288 -112 208
WIRE 160 288 160 128
WIRE 528 288 528 96
WIRE 528 288 160 288
WIRE 688 288 528 288
WIRE 880 288 880 192
WIRE 880 288 688 288
WIRE 1296 288 1296 176
WIRE 1296 288 880 288
WIRE 1456 288 1456 192
WIRE 1456 288 1296 288
WIRE 688 320 688 288
FLAG -176 -96 0
FLAG 688 320 0
FLAG -112 288 0
SYMBOL ind 1008 48 R270
WINDOW 0 32 56 Invisible 2
WINDOW 3 5 56 VBottom 2
SYMATTR InstName L1
SYMATTR Value 100µ
SYMBOL voltage -176 -240 R0
WINDOW 0 32 56 Invisible 2
WINDOW 3 -32 56 VBottom 2
WINDOW 123 0 0 Left 0
WINDOW 39 0 0 Left 0
SYMATTR InstName V2
SYMATTR Value 36
SYMBOL voltage -112 112 R0
WINDOW 0 24 16 Invisible 2
WINDOW 3 24 96 Invisible 2
WINDOW 123 0 0 Left 0
WINDOW 39 0 0 Left 0
SYMATTR InstName V4
SYMATTR Value PULSE(0 5v 1n 1n 1n 1u 3u)
SYMBOL npn 464 -192 R0
WINDOW 0 56 32 Invisible 2
WINDOW 3 72 101 Left 2
SYMATTR InstName Q1
SYMATTR Value BC547C
SYMBOL pnp 464 96 M180
WINDOW 0 84 32 Invisible 2
WINDOW 3 74 -2 Left 2
SYMATTR InstName Q2
SYMATTR Value 2N2907
SYMBOL res 176 -144 R180
WINDOW 0 36 76 Invisible 2
WINDOW 3 36 40 Left 2
SYMATTR InstName R1
SYMATTR Value 1k
SYMBOL npn 96 32 R0
WINDOW 0 56 32 Invisible 2
SYMATTR InstName Q3
SYMATTR Value BC547C
SYMBOL res 176 0 R180
WINDOW 0 40 91 Invisible 2
WINDOW 3 36 40 Left 2
SYMATTR InstName R4
SYMATTR Value 1k
SYMBOL res 48 64 R90
WINDOW 0 0 56 VBottom 2
WINDOW 3 32 56 VTop 2
SYMATTR InstName R5
SYMATTR Value 470
SYMBOL schottky 896 192 R180
WINDOW 0 24 64 Invisible 2
WINDOW 3 24 0 Invisible 2
SYMATTR InstName D3
SYMATTR Value RBR5LAM60A
SYMATTR Description Diode
SYMATTR Type diode
SYMBOL pmos 832 0 M180
SYMATTR InstName M1
SYMATTR Value Si7461DP
SYMBOL zener 416 -192 R180
WINDOW 0 24 64 Invisible 2
WINDOW 3 24 0 Invisible 2
SYMATTR InstName D2
SYMATTR Value EDZV10B
SYMBOL cap 1280 112 R0
WINDOW 0 24 8 Invisible 2
SYMATTR InstName C2
SYMATTR Value 1000µF
SYMBOL Misc\\battery 1456 96 R0
WINDOW 123 0 0 Left 0
WINDOW 39 24 132 Left 2
SYMATTR SpiceLine Rser=0.1
SYMATTR InstName V1
SYMATTR Value 12V
TEXT -192 352 Left 2 !.tran 1m
TEXT 336 -248 Left 2 ;10V
